# generated using pymatgen
data_Mg6AlCr
_symmetry_space_group_name_H-M   'P 1'
_cell_length_a   5.00096600
_cell_length_b   6.12182100
_cell_length_c   10.77897700
_cell_angle_alpha   90.00000000
_cell_angle_beta   90.00000000
_cell_angle_gamma   90.00000000
_symmetry_Int_Tables_number   1
_chemical_formula_structural   Mg6AlCr
_chemical_formula_sum   'Mg12 Al2 Cr2'
_cell_volume   329.99858220
_cell_formula_units_Z   2
loop_
 _symmetry_equiv_pos_site_id
 _symmetry_equiv_pos_as_xyz
  1  'x, y, z'
loop_
 _atom_site_type_symbol
 _atom_site_label
 _atom_site_symmetry_multiplicity
 _atom_site_fract_x
 _atom_site_fract_y
 _atom_site_fract_z
 _atom_site_occupancy
  Mg  Mg0  1  0.50000000  0.25075700  0.41665200  1
  Mg  Mg1  1  0.50000000  0.74924300  0.41665200  1
  Mg  Mg2  1  0.00000000  0.74777700  0.08563700  1
  Mg  Mg3  1  0.00000000  0.25222300  0.08563700  1
  Mg  Mg4  1  0.00000000  0.00000000  0.33135700  1
  Mg  Mg5  1  0.00000000  0.50000000  0.33001300  1
  Mg  Mg6  1  0.50000000  0.75075700  0.91665200  1
  Mg  Mg7  1  0.50000000  0.24924300  0.91665200  1
  Mg  Mg8  1  0.00000000  0.24777700  0.58563700  1
  Mg  Mg9  1  0.00000000  0.75222300  0.58563700  1
  Mg  Mg10  1  0.00000000  0.50000000  0.83135700  1
  Mg  Mg11  1  0.00000000  0.00000000  0.83001300  1
  Al  Al12  1  0.50000000  0.00000000  0.16689000  1
  Al  Al13  1  0.50000000  0.50000000  0.66689000  1
  Cr  Cr14  1  0.50000000  0.50000000  0.16715800  1
  Cr  Cr15  1  0.50000000  0.00000000  0.66715800  1
