# generated using pymatgen
data_Mg15Bi
_symmetry_space_group_name_H-M   'P 1'
_cell_length_a   6.39101096
_cell_length_b   6.39101096
_cell_length_c   10.31920922
_cell_angle_alpha   90.00000000
_cell_angle_beta   90.00000000
_cell_angle_gamma   119.99999954
_symmetry_Int_Tables_number   1
_chemical_formula_structural   Mg15Bi
_chemical_formula_sum   'Mg15 Bi1'
_cell_volume   365.01959214
_cell_formula_units_Z   1
loop_
 _symmetry_equiv_pos_site_id
 _symmetry_equiv_pos_as_xyz
  1  'x, y, z'
loop_
 _atom_site_type_symbol
 _atom_site_label
 _atom_site_symmetry_multiplicity
 _atom_site_fract_x
 _atom_site_fract_y
 _atom_site_fract_z
 _atom_site_occupancy
  Mg  Mg0  1  0.66666700  0.33333300  0.50000000  1
  Mg  Mg1  1  0.16656489  0.33312979  0.00000000  1
  Mg  Mg2  1  0.16676556  0.33353213  0.50000000  1
  Mg  Mg3  1  0.16656489  0.83343511  0.00000000  1
  Mg  Mg4  1  0.16676556  0.83323444  0.50000000  1
  Mg  Mg5  1  0.66687021  0.83343511  0.00000000  1
  Mg  Mg6  1  0.66646787  0.83323444  0.50000000  1
  Mg  Mg7  1  0.00608970  0.50304435  0.25402009  1
  Mg  Mg8  1  0.00608970  0.50304435  0.74597991  1
  Mg  Mg9  1  0.49695565  0.50304435  0.25402009  1
  Mg  Mg10  1  0.49695565  0.50304435  0.74597991  1
  Mg  Mg11  1  0.49695565  0.99391030  0.25402009  1
  Mg  Mg12  1  0.49695565  0.99391030  0.74597991  1
  Mg  Mg13  1  0.00000000  0.00000000  0.25023373  1
  Mg  Mg14  1  0.00000000  0.00000000  0.74976627  1
  Bi  Bi15  1  0.66666700  0.33333300  0.00000000  1
