# generated using pymatgen
data_MgFe6(O5F)2
_symmetry_space_group_name_H-M   'P 1'
_cell_length_a   7.70348679
_cell_length_b   5.52282309
_cell_length_c   5.77968328
_cell_angle_alpha   68.03023555
_cell_angle_beta   68.11828234
_cell_angle_gamma   70.93681550
_symmetry_Int_Tables_number   1
_chemical_formula_structural   MgFe6(O5F)2
_chemical_formula_sum   'Mg1 Fe6 O10 F2'
_cell_volume   206.54458571
_cell_formula_units_Z   1
loop_
 _symmetry_equiv_pos_site_id
 _symmetry_equiv_pos_as_xyz
  1  'x, y, z'
loop_
 _atom_site_type_symbol
 _atom_site_label
 _atom_site_symmetry_multiplicity
 _atom_site_fract_x
 _atom_site_fract_y
 _atom_site_fract_z
 _atom_site_occupancy
  Mg  Mg0  1  0.47933152  0.93696169  0.56346634  1
  Fe  Fe1  1  0.82522165  0.64076266  0.67680778  1
  Fe  Fe2  1  0.68235246  0.35359233  0.34055843  1
  Fe  Fe3  1  0.23926551  0.56632727  0.63679024  1
  Fe  Fe4  1  0.16936550  0.31592760  0.31566870  1
  Fe  Fe5  1  0.52842608  0.02301008  0.02029818  1
  Fe  Fe6  1  0.00493677  0.01117111  0.04349444  1
  O  O7  1  0.67260190  0.02502459  0.65357379  1
  O  O8  1  0.33005764  0.36038057  0.95074650  1
  O  O9  1  0.96323697  0.24881236  0.24716007  1
  O  O10  1  0.65177835  0.56857211  0.55410926  1
  O  O11  1  0.39897391  0.34949612  0.42016875  1
  O  O12  1  0.71204662  0.09403175  0.14519974  1
  O  O13  1  0.32206605  0.92260210  0.37532006  1
  O  O14  1  0.66735392  0.64487958  0.03475148  1
  O  O15  1  0.03837396  0.32202861  0.71970339  1
  O  O16  1  0.03305451  0.69529279  0.34078018  1
  F  F17  1  0.29699262  0.90038708  0.90760336  1
  F  F18  1  0.01234306  0.79454658  0.81570132  1
