# generated using pymatgen
data_Ba2Mg(WO4)2
_symmetry_space_group_name_H-M   'P 1'
_cell_length_a   4.10822690
_cell_length_b   6.03246909
_cell_length_c   8.78188790
_cell_angle_alpha   92.52760170
_cell_angle_beta   103.52150347
_cell_angle_gamma   90.00349207
_symmetry_Int_Tables_number   1
_chemical_formula_structural   Ba2Mg(WO4)2
_chemical_formula_sum   'Ba2 Mg1 W2 O8'
_cell_volume   211.38894529
_cell_formula_units_Z   1
loop_
 _symmetry_equiv_pos_site_id
 _symmetry_equiv_pos_as_xyz
  1  'x, y, z'
loop_
 _atom_site_type_symbol
 _atom_site_label
 _atom_site_symmetry_multiplicity
 _atom_site_fract_x
 _atom_site_fract_y
 _atom_site_fract_z
 _atom_site_occupancy
  Ba  Ba0  1  0.19674400  0.49264300  0.39407400  1
  Ba  Ba1  1  0.80608100  0.99550400  0.61257300  1
  Mg  Mg2  1  0.00111400  0.24197600  0.00311600  1
  W  W3  1  0.41388100  0.51267400  0.82817000  1
  W  W4  1  0.58862200  0.97270400  0.17822200  1
  O  O5  1  0.50181100  0.74085800  0.00422700  1
  O  O6  1  0.66804100  0.20541800  0.33676900  1
  O  O7  1  0.07643700  0.00396200  0.15371700  1
  O  O8  1  0.92597800  0.48012700  0.85242700  1
  O  O9  1  0.67061600  0.75550300  0.34205600  1
  O  O10  1  0.33377900  0.28215000  0.66795900  1
  O  O11  1  0.33286000  0.73238700  0.66615700  1
  O  O12  1  0.50070300  0.24074300  0.00219800  1
