# generated using pymatgen
data_Mg6SbW
_symmetry_space_group_name_H-M   'P 1'
_cell_length_a   5.18920100
_cell_length_b   5.91355800
_cell_length_c   10.74531300
_cell_angle_alpha   90.00000000
_cell_angle_beta   90.00000000
_cell_angle_gamma   90.00000000
_symmetry_Int_Tables_number   1
_chemical_formula_structural   Mg6SbW
_chemical_formula_sum   'Mg12 Sb2 W2'
_cell_volume   329.73756340
_cell_formula_units_Z   2
loop_
 _symmetry_equiv_pos_site_id
 _symmetry_equiv_pos_as_xyz
  1  'x, y, z'
loop_
 _atom_site_type_symbol
 _atom_site_label
 _atom_site_symmetry_multiplicity
 _atom_site_fract_x
 _atom_site_fract_y
 _atom_site_fract_z
 _atom_site_occupancy
  Mg  Mg0  1  0.50000000  0.24829000  0.41736800  1
  Mg  Mg1  1  0.50000000  0.75171000  0.41736800  1
  Mg  Mg2  1  0.00000000  0.76176700  0.08480600  1
  Mg  Mg3  1  0.00000000  0.23823300  0.08480600  1
  Mg  Mg4  1  0.00000000  0.00000000  0.32474300  1
  Mg  Mg5  1  0.00000000  0.50000000  0.33507400  1
  Mg  Mg6  1  0.50000000  0.74829000  0.91736800  1
  Mg  Mg7  1  0.50000000  0.25171000  0.91736800  1
  Mg  Mg8  1  0.00000000  0.26176700  0.58480600  1
  Mg  Mg9  1  0.00000000  0.73823300  0.58480600  1
  Mg  Mg10  1  0.00000000  0.50000000  0.82474300  1
  Mg  Mg11  1  0.00000000  0.00000000  0.83507400  1
  Sb  Sb12  1  0.50000000  0.50000000  0.16958600  1
  Sb  Sb13  1  0.50000000  0.00000000  0.66958600  1
  W  W14  1  0.50000000  0.00000000  0.16624500  1
  W  W15  1  0.50000000  0.50000000  0.66624500  1
