# generated using pymatgen
data_Mg6CdNi
_symmetry_space_group_name_H-M   'P 1'
_cell_length_a   4.90633500
_cell_length_b   6.14109400
_cell_length_c   10.65515200
_cell_angle_alpha   90.00000000
_cell_angle_beta   90.00000000
_cell_angle_gamma   90.00000000
_symmetry_Int_Tables_number   1
_chemical_formula_structural   Mg6CdNi
_chemical_formula_sum   'Mg12 Cd2 Ni2'
_cell_volume   321.04254731
_cell_formula_units_Z   2
loop_
 _symmetry_equiv_pos_site_id
 _symmetry_equiv_pos_as_xyz
  1  'x, y, z'
loop_
 _atom_site_type_symbol
 _atom_site_label
 _atom_site_symmetry_multiplicity
 _atom_site_fract_x
 _atom_site_fract_y
 _atom_site_fract_z
 _atom_site_occupancy
  Mg  Mg0  1  0.00000000  0.75016900  0.08401200  1
  Mg  Mg1  1  0.00000000  0.24983100  0.08401200  1
  Mg  Mg2  1  0.00000000  0.00000000  0.33314600  1
  Mg  Mg3  1  0.50000000  0.26302700  0.40981400  1
  Mg  Mg4  1  0.50000000  0.73697300  0.40981400  1
  Mg  Mg5  1  0.50000000  0.00000000  0.16726700  1
  Mg  Mg6  1  0.00000000  0.25016900  0.58401200  1
  Mg  Mg7  1  0.00000000  0.74983100  0.58401200  1
  Mg  Mg8  1  0.00000000  0.50000000  0.83314600  1
  Mg  Mg9  1  0.50000000  0.76302700  0.90981400  1
  Mg  Mg10  1  0.50000000  0.23697300  0.90981400  1
  Mg  Mg11  1  0.50000000  0.50000000  0.66726700  1
  Cd  Cd12  1  0.50000000  0.50000000  0.16957200  1
  Cd  Cd13  1  0.50000000  0.00000000  0.66957200  1
  Ni  Ni14  1  0.00000000  0.50000000  0.34236200  1
  Ni  Ni15  1  0.00000000  0.00000000  0.84236200  1
