# generated using pymatgen
data_CeMg6Co
_symmetry_space_group_name_H-M   'P 1'
_cell_length_a   4.95480900
_cell_length_b   5.67127800
_cell_length_c   12.64744100
_cell_angle_alpha   90.00000000
_cell_angle_beta   90.00000000
_cell_angle_gamma   90.00000000
_symmetry_Int_Tables_number   1
_chemical_formula_structural   CeMg6Co
_chemical_formula_sum   'Ce2 Mg12 Co2'
_cell_volume   355.39434769
_cell_formula_units_Z   2
loop_
 _symmetry_equiv_pos_site_id
 _symmetry_equiv_pos_as_xyz
  1  'x, y, z'
loop_
 _atom_site_type_symbol
 _atom_site_label
 _atom_site_symmetry_multiplicity
 _atom_site_fract_x
 _atom_site_fract_y
 _atom_site_fract_z
 _atom_site_occupancy
  Ce  Ce0  1  0.00000000  0.50000000  0.19026500  1
  Ce  Ce1  1  0.00000000  0.00000000  0.69026500  1
  Mg  Mg2  1  0.00000000  0.25141400  0.43916000  1
  Mg  Mg3  1  0.00000000  0.74858600  0.43916000  1
  Mg  Mg4  1  0.50000000  0.75477800  0.07575700  1
  Mg  Mg5  1  0.50000000  0.24522200  0.07575700  1
  Mg  Mg6  1  0.50000000  0.00000000  0.28335600  1
  Mg  Mg7  1  0.50000000  0.50000000  0.35186500  1
  Mg  Mg8  1  0.00000000  0.75141400  0.93916000  1
  Mg  Mg9  1  0.00000000  0.24858600  0.93916000  1
  Mg  Mg10  1  0.50000000  0.25477800  0.57575700  1
  Mg  Mg11  1  0.50000000  0.74522200  0.57575700  1
  Mg  Mg12  1  0.50000000  0.50000000  0.78335600  1
  Mg  Mg13  1  0.50000000  0.00000000  0.85186500  1
  Co  Co14  1  0.00000000  0.00000000  0.14467600  1
  Co  Co15  1  0.00000000  0.50000000  0.64467600  1
