# generated using pymatgen
data_HfMg14Mo
_symmetry_space_group_name_H-M   'P 1'
_cell_length_a   6.32621917
_cell_length_b   6.32621866
_cell_length_c   10.00162391
_cell_angle_alpha   90.00000000
_cell_angle_beta   90.00000000
_cell_angle_gamma   120.00000264
_symmetry_Int_Tables_number   1
_chemical_formula_structural   HfMg14Mo
_chemical_formula_sum   'Hf1 Mg14 Mo1'
_cell_volume   346.64869718
_cell_formula_units_Z   1
loop_
 _symmetry_equiv_pos_site_id
 _symmetry_equiv_pos_as_xyz
  1  'x, y, z'
loop_
 _atom_site_type_symbol
 _atom_site_label
 _atom_site_symmetry_multiplicity
 _atom_site_fract_x
 _atom_site_fract_y
 _atom_site_fract_z
 _atom_site_occupancy
  Hf  Hf0  1  0.16666700  0.33333300  0.62500000  1
  Mg  Mg1  1  0.16594317  0.83297108  0.12500000  1
  Mg  Mg2  1  0.17362370  0.83681135  0.62500000  1
  Mg  Mg3  1  0.66702892  0.33405683  0.12500000  1
  Mg  Mg4  1  0.66318865  0.32637630  0.62500000  1
  Mg  Mg5  1  0.66702892  0.83297108  0.12500000  1
  Mg  Mg6  1  0.66318865  0.83681135  0.62500000  1
  Mg  Mg7  1  0.32617222  0.17382778  0.36666486  1
  Mg  Mg8  1  0.32617222  0.17382778  0.88333514  1
  Mg  Mg9  1  0.32617222  0.65234544  0.36666486  1
  Mg  Mg10  1  0.32617222  0.65234544  0.88333514  1
  Mg  Mg11  1  0.84765456  0.17382778  0.36666486  1
  Mg  Mg12  1  0.84765456  0.17382778  0.88333514  1
  Mg  Mg13  1  0.83333300  0.66666700  0.37965329  1
  Mg  Mg14  1  0.83333300  0.66666700  0.87034671  1
  Mo  Mo15  1  0.16666700  0.33333300  0.12500000  1
