# generated using pymatgen
data_Mg6NbZn
_symmetry_space_group_name_H-M   'P 1'
_cell_length_a   4.90911300
_cell_length_b   6.09323500
_cell_length_c   10.87326400
_cell_angle_alpha   90.00000000
_cell_angle_beta   90.00000000
_cell_angle_gamma   90.00000000
_symmetry_Int_Tables_number   1
_chemical_formula_structural   Mg6NbZn
_chemical_formula_sum   'Mg12 Nb2 Zn2'
_cell_volume   325.24519537
_cell_formula_units_Z   2
loop_
 _symmetry_equiv_pos_site_id
 _symmetry_equiv_pos_as_xyz
  1  'x, y, z'
loop_
 _atom_site_type_symbol
 _atom_site_label
 _atom_site_symmetry_multiplicity
 _atom_site_fract_x
 _atom_site_fract_y
 _atom_site_fract_z
 _atom_site_occupancy
  Mg  Mg0  1  0.50000000  0.25251800  0.41930700  1
  Mg  Mg1  1  0.50000000  0.74748200  0.41930700  1
  Mg  Mg2  1  0.00000000  0.74382800  0.08646300  1
  Mg  Mg3  1  0.00000000  0.25617200  0.08646300  1
  Mg  Mg4  1  0.00000000  0.00000000  0.32781600  1
  Mg  Mg5  1  0.00000000  0.50000000  0.32557000  1
  Mg  Mg6  1  0.50000000  0.75251800  0.91930700  1
  Mg  Mg7  1  0.50000000  0.24748200  0.91930700  1
  Mg  Mg8  1  0.00000000  0.24382800  0.58646300  1
  Mg  Mg9  1  0.00000000  0.75617200  0.58646300  1
  Mg  Mg10  1  0.00000000  0.50000000  0.82781600  1
  Mg  Mg11  1  0.00000000  0.00000000  0.82557000  1
  Nb  Nb12  1  0.50000000  0.50000000  0.16990900  1
  Nb  Nb13  1  0.50000000  0.00000000  0.66990900  1
  Zn  Zn14  1  0.50000000  0.00000000  0.16515900  1
  Zn  Zn15  1  0.50000000  0.50000000  0.66515900  1
