# generated using pymatgen
data_Mg14CoMo
_symmetry_space_group_name_H-M   'P 1'
_cell_length_a   6.20812641
_cell_length_b   6.20812594
_cell_length_c   9.73246183
_cell_angle_alpha   90.00000000
_cell_angle_beta   90.00000000
_cell_angle_gamma   120.00000258
_symmetry_Int_Tables_number   1
_chemical_formula_structural   Mg14CoMo
_chemical_formula_sum   'Mg14 Co1 Mo1'
_cell_volume   324.84366314
_cell_formula_units_Z   1
loop_
 _symmetry_equiv_pos_site_id
 _symmetry_equiv_pos_as_xyz
  1  'x, y, z'
loop_
 _atom_site_type_symbol
 _atom_site_label
 _atom_site_symmetry_multiplicity
 _atom_site_fract_x
 _atom_site_fract_y
 _atom_site_fract_z
 _atom_site_occupancy
  Mg  Mg0  1  0.16614079  0.83306990  0.12500000  1
  Mg  Mg1  1  0.17082233  0.83541067  0.62500000  1
  Mg  Mg2  1  0.66693010  0.33385921  0.12500000  1
  Mg  Mg3  1  0.66458933  0.32917767  0.62500000  1
  Mg  Mg4  1  0.66693010  0.83306990  0.12500000  1
  Mg  Mg5  1  0.66458933  0.83541067  0.62500000  1
  Mg  Mg6  1  0.32306763  0.17693237  0.37212703  1
  Mg  Mg7  1  0.32306763  0.17693237  0.87787297  1
  Mg  Mg8  1  0.32306763  0.64613626  0.37212703  1
  Mg  Mg9  1  0.32306763  0.64613626  0.87787297  1
  Mg  Mg10  1  0.85386374  0.17693237  0.37212703  1
  Mg  Mg11  1  0.85386374  0.17693237  0.87787297  1
  Mg  Mg12  1  0.83333300  0.66666700  0.37829794  1
  Mg  Mg13  1  0.83333300  0.66666700  0.87170206  1
  Co  Co14  1  0.16666700  0.33333300  0.12500000  1
  Mo  Mo15  1  0.16666700  0.33333300  0.62500000  1
