# generated using pymatgen
data_Mg15Sn
_symmetry_space_group_name_H-M   'P 1'
_cell_length_a   6.33862680
_cell_length_b   6.33862680
_cell_length_c   10.32751509
_cell_angle_alpha   90.00000000
_cell_angle_beta   90.00000000
_cell_angle_gamma   120.00000589
_symmetry_Int_Tables_number   1
_chemical_formula_structural   Mg15Sn
_chemical_formula_sum   'Mg15 Sn1'
_cell_volume   359.34930540
_cell_formula_units_Z   1
loop_
 _symmetry_equiv_pos_site_id
 _symmetry_equiv_pos_as_xyz
  1  'x, y, z'
loop_
 _atom_site_type_symbol
 _atom_site_label
 _atom_site_symmetry_multiplicity
 _atom_site_fract_x
 _atom_site_fract_y
 _atom_site_fract_z
 _atom_site_occupancy
  Mg  Mg0  1  0.00000000  0.00000000  0.00000000  1
  Mg  Mg1  1  0.99890999  0.49945499  0.50000000  1
  Mg  Mg2  1  0.00036599  0.50018250  0.00000000  1
  Mg  Mg3  1  0.50054501  0.49945499  0.50000000  1
  Mg  Mg4  1  0.49981750  0.50018250  0.00000000  1
  Mg  Mg5  1  0.50054501  0.00109001  0.50000000  1
  Mg  Mg6  1  0.49981750  0.99963401  0.00000000  1
  Mg  Mg7  1  0.16711384  0.33422868  0.25007444  1
  Mg  Mg8  1  0.16711384  0.33422868  0.74992556  1
  Mg  Mg9  1  0.16711384  0.83288616  0.25007444  1
  Mg  Mg10  1  0.16711384  0.83288616  0.74992556  1
  Mg  Mg11  1  0.66577132  0.83288616  0.25007444  1
  Mg  Mg12  1  0.66577132  0.83288616  0.74992556  1
  Mg  Mg13  1  0.66666700  0.33333300  0.24981333  1
  Mg  Mg14  1  0.66666700  0.33333300  0.75018667  1
  Sn  Sn15  1  0.00000000  0.00000000  0.50000000  1
