# generated using pymatgen
data_BaNaMg6
_symmetry_space_group_name_H-M   'P 1'
_cell_length_a   5.40028100
_cell_length_b   6.99945600
_cell_length_c   12.30134400
_cell_angle_alpha   90.00000000
_cell_angle_beta   90.00000000
_cell_angle_gamma   90.00000000
_symmetry_Int_Tables_number   1
_chemical_formula_structural   BaNaMg6
_chemical_formula_sum   'Ba2 Na2 Mg12'
_cell_volume   464.97886164
_cell_formula_units_Z   2
loop_
 _symmetry_equiv_pos_site_id
 _symmetry_equiv_pos_as_xyz
  1  'x, y, z'
loop_
 _atom_site_type_symbol
 _atom_site_label
 _atom_site_symmetry_multiplicity
 _atom_site_fract_x
 _atom_site_fract_y
 _atom_site_fract_z
 _atom_site_occupancy
  Ba  Ba0  1  0.50000000  0.50000000  0.16895400  1
  Ba  Ba1  1  0.50000000  0.00000000  0.66895400  1
  Na  Na2  1  0.00000000  0.50000000  0.34391700  1
  Na  Na3  1  0.00000000  0.00000000  0.84391700  1
  Mg  Mg4  1  0.00000000  0.77093900  0.07543800  1
  Mg  Mg5  1  0.00000000  0.22906100  0.07543800  1
  Mg  Mg6  1  0.00000000  0.00000000  0.33189800  1
  Mg  Mg7  1  0.50000000  0.24928600  0.42211300  1
  Mg  Mg8  1  0.50000000  0.75071400  0.42211300  1
  Mg  Mg9  1  0.50000000  0.00000000  0.16013000  1
  Mg  Mg10  1  0.00000000  0.27093900  0.57543800  1
  Mg  Mg11  1  0.00000000  0.72906100  0.57543800  1
  Mg  Mg12  1  0.00000000  0.50000000  0.83189800  1
  Mg  Mg13  1  0.50000000  0.74928600  0.92211300  1
  Mg  Mg14  1  0.50000000  0.25071400  0.92211300  1
  Mg  Mg15  1  0.50000000  0.50000000  0.66013000  1
