# generated using pymatgen
data_MgZn(CoO2)4
_symmetry_space_group_name_H-M   'P 1'
_cell_length_a   2.98893326
_cell_length_b   6.95236113
_cell_length_c   8.02867753
_cell_angle_alpha   69.09899284
_cell_angle_beta   75.71308883
_cell_angle_gamma   83.06686234
_symmetry_Int_Tables_number   1
_chemical_formula_structural   MgZn(CoO2)4
_chemical_formula_sum   'Mg1 Zn1 Co4 O8'
_cell_volume   150.94011633
_cell_formula_units_Z   1
loop_
 _symmetry_equiv_pos_site_id
 _symmetry_equiv_pos_as_xyz
  1  'x, y, z'
loop_
 _atom_site_type_symbol
 _atom_site_label
 _atom_site_symmetry_multiplicity
 _atom_site_fract_x
 _atom_site_fract_y
 _atom_site_fract_z
 _atom_site_occupancy
  Mg  Mg0  1  0.77786100  0.67062400  0.39111400  1
  Zn  Zn1  1  0.26917800  0.06053100  0.20431600  1
  Co  Co2  1  0.55407400  0.20180900  0.55496400  1
  Co  Co3  1  0.42375100  0.51259400  0.14837000  1
  Co  Co4  1  0.93093400  0.43369400  0.83130200  1
  Co  Co5  1  0.48795400  0.82017300  0.66283300  1
  O  O6  1  0.02651900  0.65345800  0.60878800  1
  O  O7  1  0.47905800  0.31424200  0.75687800  1
  O  O8  1  0.37876000  0.76019600  0.21203100  1
  O  O9  1  0.06259200  0.37568600  0.40143800  1
  O  O10  1  0.03425600  0.01244100  0.69827800  1
  O  O11  1  0.78053200  0.27193500  0.08039900  1
  O  O12  1  0.65475700  0.99124900  0.41195200  1
  O  O13  1  0.35264500  0.59104100  0.89320000  1
