# generated using pymatgen
data_MgFe6(O5F)2
_symmetry_space_group_name_H-M   'P 1'
_cell_length_a   4.99586952
_cell_length_b   7.62715025
_cell_length_c   5.60184304
_cell_angle_alpha   96.35908118
_cell_angle_beta   93.93619877
_cell_angle_gamma   86.43970544
_symmetry_Int_Tables_number   1
_chemical_formula_structural   MgFe6(O5F)2
_chemical_formula_sum   'Mg1 Fe6 O10 F2'
_cell_volume   211.32035749
_cell_formula_units_Z   1
loop_
 _symmetry_equiv_pos_site_id
 _symmetry_equiv_pos_as_xyz
  1  'x, y, z'
loop_
 _atom_site_type_symbol
 _atom_site_label
 _atom_site_symmetry_multiplicity
 _atom_site_fract_x
 _atom_site_fract_y
 _atom_site_fract_z
 _atom_site_occupancy
  Mg  Mg0  1  0.00082600  0.82957300  0.33066300  1
  Fe  Fe1  1  0.53033000  0.67108000  0.14065400  1
  Fe  Fe2  1  0.47200100  0.98821600  0.51896100  1
  Fe  Fe3  1  0.50866100  0.33138400  0.82400600  1
  Fe  Fe4  1  0.97521900  0.64055200  0.71794300  1
  Fe  Fe5  1  0.99950500  0.32881800  0.33042600  1
  Fe  Fe6  1  0.02671500  0.01733700  0.94209500  1
  O  O7  1  0.82283500  0.41798600  0.62000000  1
  O  O8  1  0.83494900  0.77358900  0.99525000  1
  O  O9  1  0.67567900  0.09890000  0.79754100  1
  O  O10  1  0.68190300  0.75765600  0.47084300  1
  O  O11  1  0.69624200  0.42743200  0.12550500  1
  O  O12  1  0.32614500  0.56002900  0.86342300  1
  O  O13  1  0.30567900  0.23280600  0.53414300  1
  O  O14  1  0.31922600  0.90000900  0.18785900  1
  O  O15  1  0.17268800  0.23988800  0.04387400  1
  O  O16  1  0.16827800  0.88538000  0.66504000  1
  F  F17  1  0.83225400  0.08029400  0.30222400  1
  F  F18  1  0.16475400  0.57799900  0.36335900  1
