# generated using pymatgen
data_MgCo6(O3F)3
_symmetry_space_group_name_H-M   'P 1'
_cell_length_a   6.73040704
_cell_length_b   5.80037200
_cell_length_c   5.76108432
_cell_angle_alpha   84.36123453
_cell_angle_beta   76.08307363
_cell_angle_gamma   72.24786788
_symmetry_Int_Tables_number   1
_chemical_formula_structural   MgCo6(O3F)3
_chemical_formula_sum   'Mg1 Co6 O9 F3'
_cell_volume   207.83392557
_cell_formula_units_Z   1
loop_
 _symmetry_equiv_pos_site_id
 _symmetry_equiv_pos_as_xyz
  1  'x, y, z'
loop_
 _atom_site_type_symbol
 _atom_site_label
 _atom_site_symmetry_multiplicity
 _atom_site_fract_x
 _atom_site_fract_y
 _atom_site_fract_z
 _atom_site_occupancy
  Mg  Mg0  1  0.49090895  0.50908900  0.99455183  1
  Co  Co1  1  0.83959455  0.66667993  0.67444912  1
  Co  Co2  1  0.32963035  0.76096226  0.57514488  1
  Co  Co3  1  0.66718682  0.28793572  0.40403491  1
  Co  Co4  1  0.15756126  0.32020799  0.36136030  1
  Co  Co5  1  0.49778134  0.99640119  0.01361647  1
  Co  Co6  1  0.99627609  0.01791750  -0.01213374  1
  O  O7  1  0.60859528  0.53888046  0.62919662  1
  O  O8  1  0.30087982  0.86345609  0.92251097  1
  O  O9  1  0.95684683  0.19431253  0.26851964  1
  O  O10  1  0.37836152  0.47717158  0.36984942  1
  O  O11  1  0.03796764  0.80893449  0.73513259  1
  O  O12  1  0.68947281  0.15043752  0.07320572  1
  O  O13  1  0.34633325  0.00885944  0.36143772  1
  O  O14  1  0.69867319  0.69519077  -0.00977832  1
  O  O15  1  0.96787841  0.62592967  0.36933690  1
  F  F16  1  0.29931153  0.32312838  0.98209500  1
  F  F17  1  0.63987766  0.02356986  0.62751970  1
  F  F18  1  0.01686270  0.30593561  0.72244725  1
