# generated using pymatgen
data_MgTi2(SiO4)2
_symmetry_space_group_name_H-M   'P 1'
_cell_length_a   5.05339448
_cell_length_b   5.05339448
_cell_length_c   6.16740400
_cell_angle_alpha   90.00000000
_cell_angle_beta   90.00000000
_cell_angle_gamma   111.47336879
_symmetry_Int_Tables_number   1
_chemical_formula_structural   MgTi2(SiO4)2
_chemical_formula_sum   'Mg1 Ti2 Si2 O8'
_cell_volume   146.56361395
_cell_formula_units_Z   1
loop_
 _symmetry_equiv_pos_site_id
 _symmetry_equiv_pos_as_xyz
  1  'x, y, z'
loop_
 _atom_site_type_symbol
 _atom_site_label
 _atom_site_symmetry_multiplicity
 _atom_site_fract_x
 _atom_site_fract_y
 _atom_site_fract_z
 _atom_site_occupancy
  Mg  Mg0  1  0.66517300  0.33482700  0.25000000  1
  Ti  Ti1  1  0.00911000  0.99089000  0.53606400  1
  Ti  Ti2  1  0.00911000  0.99089000  0.96393600  1
  Si  Si3  1  0.65189200  0.34810800  0.75000000  1
  Si  Si4  1  0.34468400  0.65531600  0.25000000  1
  O  O5  1  0.76573900  0.23426100  0.53407800  1
  O  O6  1  0.22817400  0.77182600  0.46074700  1
  O  O7  1  0.76573900  0.23426100  0.96592200  1
  O  O8  1  0.22817400  0.77182600  0.03925300  1
  O  O9  1  0.77003000  0.69873700  0.75000000  1
  O  O10  1  0.70083600  0.75936800  0.25000000  1
  O  O11  1  0.24063200  0.29916400  0.25000000  1
  O  O12  1  0.30126300  0.22997000  0.75000000  1
