# generated using pymatgen
data_MgFe6O11F
_symmetry_space_group_name_H-M   'P 1'
_cell_length_a   4.91804576
_cell_length_b   7.48080739
_cell_length_c   5.54643785
_cell_angle_alpha   95.87298204
_cell_angle_beta   91.67879178
_cell_angle_gamma   88.51830996
_symmetry_Int_Tables_number   1
_chemical_formula_structural   MgFe6O11F
_chemical_formula_sum   'Mg1 Fe6 O11 F1'
_cell_volume   202.84691017
_cell_formula_units_Z   1
loop_
 _symmetry_equiv_pos_site_id
 _symmetry_equiv_pos_as_xyz
  1  'x, y, z'
loop_
 _atom_site_type_symbol
 _atom_site_label
 _atom_site_symmetry_multiplicity
 _atom_site_fract_x
 _atom_site_fract_y
 _atom_site_fract_z
 _atom_site_occupancy
  Mg  Mg0  1  0.00893400  0.49451600  0.00189300  1
  Fe  Fe1  1  0.51975600  0.69728400  0.13397600  1
  Fe  Fe2  1  0.49196100  0.00126400  0.50771700  1
  Fe  Fe3  1  0.50819900  0.32450400  0.85469800  1
  Fe  Fe4  1  0.98143200  0.69961800  0.63251300  1
  Fe  Fe5  1  0.99370500  0.29809900  0.39488700  1
  Fe  Fe6  1  0.00152900  0.00632200  0.00604400  1
  O  O7  1  0.84657600  0.44530700  0.66566500  1
  O  O8  1  0.84261300  0.76789300  0.96566000  1
  O  O9  1  0.81294000  0.08416900  0.29903200  1
  O  O10  1  0.71036700  0.09953400  0.81650900  1
  O  O11  1  0.66470700  0.76413600  0.45121100  1
  O  O12  1  0.66697100  0.44135800  0.14865100  1
  O  O13  1  0.33691800  0.57392400  0.85686500  1
  O  O14  1  0.33269100  0.24368800  0.55721300  1
  O  O15  1  0.29085700  0.90928100  0.19101500  1
  O  O16  1  0.16412200  0.24256500  0.05627400  1
  O  O17  1  0.17848500  0.91687200  0.70747100  1
  F  F18  1  0.16112400  0.57002400  0.33604000  1
